/*--------------------------------*- C++ -*----------------------------------*\
| =========                 |                                                 |
| \\      /  F ield         | OpenFOAM: The Open Source CFD Toolbox           |
|  \\    /   O peration     | Version:  v2006                                 |
|   \\  /    A nd           | Website:  www.openfoam.com                      |
|    \\/     M anipulation  |                                                 |
\*---------------------------------------------------------------------------*/
FoamFile
{
    version     2.0;
    format      ascii;
    class       dictionary;
    location    "system";
    object      controlDict;
}
// * * * * * * * * * * * * * * * * * * * * * * * * * * * * * * * * * * * * * //

application     interIsoFoam;

startFrom       latestTime;

startTime       0;

stopAt          endTime;

endTime         1.2;

deltaT          0.001;

writeControl    adjustable;

writeInterval   0.02;

purgeWrite      0;

writeFormat     ascii;

writePrecision  6;

writeCompression off;

timeFormat      general;

timePrecision   6;

runTimeModifiable yes;

adjustTimeStep  yes;

maxCo           0.25;

maxAlphaCo      0.75;

maxDeltaT       1;



functions
{
    probes
   {
        type           probes;
        libs           ("libsampling.so");
        writeControl   timeStep;
        writeInterval  1;

        fields
        (
             p
        );

        probeLocations
        (
            (0.8 0.1 0.011)
        );

    }
}

// ************************************************************************* //
