/*--------------------------------*- C++ -*----------------------------------*\
| =========                 |                                                 |
| \\      /  F ield         | OpenFOAM: The Open Source CFD Toolbox           |
|  \\    /   O peration     | Version:  v2006                                 |
|   \\  /    A nd           | Website:  www.openfoam.com                      |
|    \\/     M anipulation  |                                                 |
\*---------------------------------------------------------------------------*/
FoamFile
{
    version     2.0;
    format      ascii;
    class       volScalarField;
    object      omega;
}
// * * * * * * * * * * * * * * * * * * * * * * * * * * * * * * * * * * * * * //

dimensions      [0 0 -1 0 0 0 0];

internalField   uniform 4;

boundaryField
{

    atmosphere
    {
        type            inletOutlet;
        inletValue      $internalField;
        value           $internalField;
    }

    bottom
    {
        type            omegaWallFunction;
        blended         true;
        value           $internalField;
    }

    back
    {
        type            omegaWallFunction;
        blended         true;
        value           $internalField;
    }

    front
    {
        type            omegaWallFunction;
        blended         true;
        value           $internalField;
    }

    rightwall
    {
        type            omegaWallFunction;
        blended         true;
        value           $internalField;
    }

    leftwall
    {
        type            omegaWallFunction;
        blended         true;
        value           $internalField;
    }

    lid
    {
        type            omegaWallFunction;
        blended         true;
        value           $internalField;
    }
}



// ************************************************************************* //
